ttt/ppower/bsp5.m
% This file was generated by sparlectra exportMatPower.jl
function mpc = bsp5
%% MATPOWER Case Format : Version 2
mpc.version = '2';
%%-----  Power Flow Data  -----%%
%% system MVA base
mpc.baseMVA = 100.0;
%% bus data
mpc.bus = [
%bus	type	Pd	Qd	Gs	Bs	area	Vm	Va	baseKV	zone	Vmax	Vmin
1	1	0.0	0.0	0.0	0.0	1	1.0	0.0	220.0	1	1.1	0.9; %Bus: Bus1 (ID: ed889415-83af-40b1-8b10-7e3b5f70e6be kIdx: 1)
2	1	0.0	0.0	0.0	0.0	1	1.0	0.0	220.0	1	1.1	0.9; %Bus: Bus2 (ID: 226378c8-2209-4656-a262-1bd021bc25dc kIdx: 2)
3	1	0.0	0.0	0.0	0.0	1	1.0	0.0	110.0	1	1.1	0.9; %Bus: Bus3 (ID: 2c18442c-5d87-44ca-9722-2081ad23a16f kIdx: 3)
4	1	100.0	130.0	0.0	60.0	1	1.0	0.0	110.0	1	1.1	0.9; %Bus: Bus4 (ID: d7c30c63-9866-48fd-8436-e3607b81a908 kIdx: 4)
5	1	0.0	0.0	0.0	0.0	1	1.0	0.0	30.0	1	1.1	0.9; %Bus: Bus5 (ID: fbd14f94-d136-43ba-bbbf-a942fe472094 kIdx: 5)
6	1	4.0	30.0	0.0	30.0	1	1.0	0.0	30.0	1	1.1	0.9; %Bus: Bus6 (ID: bd04bf21-3f04-4225-bfe8-97079a543ee6 kIdx: 6)
7	3	0.0	0.0	0.0	0.0	1	1.0	0.0	220.0	1	1.1	0.9; %Bus: Bus7 (slack) (ID: 868a78e3-e8fd-4c10-b6a1-e348b78a445c kIdx: 7)
8	1	0.0	0.0	0.0	0.0	1	1.0	0.0	220.0	1	1.1	0.9; %Bus: aux_#8 (ID: f06bab46-172d-4a9c-8529-0de3af1bdeb0 kIdx: 8)
];
%% generator data
mpc.gen = [
%bus	Pg	Qg	Qmax	Qmin	Vg	mBase	status	Pmax	Pmin	Pc1	Pc2	Qc1min	Qc1max	Qc2min	Qc2max	ramp_agc	ramp_10	ramp_30	ramp_q	apf
1	100.0	40.0	0	0	1.0	100.0	1	0	0	0.0	0.0	0.0	0.0	0.0	0.0	0.0	0.0	0.0	0.0	0.0; %Gen: Generator_SG1 (ID: ed889415-83af-40b1-8b10-7e3b5f70e6be)
7	400.0	0	600.0	-700.0	1.0	100.0	1	0	0	0.0	0.0	0.0	0.0	0.0	0.0	0.0	0.0	0.0	0.0	0.0; %Gen: SynchronousMachine_VG1 (ID: 868a78e3-e8fd-4c10-b6a1-e348b78a445c)
];
%% branch data
mpc.branch = [
%fbus	tbus	r	x	b	rateA	rateB	rateC	ratio	angle	status	angmin	angmax
1	2	0.00516529	0.02066116	0.03630267	0	0	0	0.0	0.0	1	-360	360; %Branch: Name: L1_2, Typ: LineC (ID: d21e0547-6000-4a0b-8d52-57f93edc1074)
1	7	0.00413223	0.00805785	0.01452107	0	0	0	0.0	0.0	1	-360	360; %Branch: Name: L1_7, Typ: LineC (ID: 34beb445-ea26-4273-b3ba-ce0a52f9ace7)
3	4	0.00826446	0.03305785	0.00363027	0	0	0	0.0	0.0	1	-360	360; %Branch: Name: L3_4, Typ: LineC (ID: 66297709-a655-445c-ac33-f9ad04240f93)
5	6	0.05555556	0.22222222	0.00013501	0	0	0	0.0	0.0	1	-360	360; %Branch: Name: L5_6, Typ: LineC (ID: 6002e5b1-86db-4cbe-8520-49b360cac418)
2	8	0.0011	0.04331937	-0.00248193	0	0	0	0.898876404494382	0.0	1	-360	360; %Branch: Name: T1_3WT, Typ: Trafo (ID: 1e841e4d-3ad7-4b76-b5a4-10c96db748d7)
8	3	0.0009	0.02331597	0.0	0	0	0	1.0	0.0	1	-360	360; %Branch: Name: T1_3WT, Typ: Trafo (ID: 1e841e4d-3ad7-4b76-b5a4-10c96db748d7)
8	5	0.0053	0.19659524	0.0	0	0	0	1.0	0.0	1	-360	360; %Branch: Name: T1_3WT, Typ: Trafo (ID: 1e841e4d-3ad7-4b76-b5a4-10c96db748d7)
];
